/*--------------------------------*- C++ -*----------------------------------*\
| =========                 |                                                 |
| \\      /  F ield         | OpenFOAM: The Open Source CFD Toolbox           |
|  \\    /   O peration     |                                                 |
|   \\  /    A nd           | ThermoFOAM-DC v0.1 baseline mesh                |
|    \\/     M anipulation  |                                                 |
\*---------------------------------------------------------------------------*/
FoamFile
{
    version     2.0;
    format      ascii;
    class       dictionary;
    object      blockMeshDict;
}
// * * * * * * * * * * * * * * * * * * * * * * * * * * * * * * * * * * * * * //

// Geometry:
//   Room: 7 m x 5 m x 3 m
//   x = length, y = width, z = height
//
// Boundary patches created here:
//   supplyTiles  : three cold-air inlet tiles on the floor, z = 0
//   returnOutlet : ceiling outlet strip, z = 3
//   floor        : remaining floor
//   ceiling      : remaining ceiling
//   walls        : all four vertical side walls
//
// Rack heat-source regions are NOT solid blocks in v0.1.
// Create rack cellZones with topoSet and apply heat with constant/fvModels.

convertToMeters  1;

// ------------------------------------------------------------------------- //
// Grid-independence control
// ------------------------------------------------------------------------- //
// Change ONLY these three values for coarse/base/fine meshes.
// They are cells per metre in x, y, z. 10 10 10 reproduces the original
// approximately uniform 0.1 m grid: about 70 x 50 x 30 cells.
//
// Suggested grid-independence levels:
//   coarse : cellsPerMetreX 7;  cellsPerMetreY 7;  cellsPerMetreZ 7;
//   base   : cellsPerMetreX 10; cellsPerMetreY 10; cellsPerMetreZ 10;
//   fine   : cellsPerMetreX 14; cellsPerMetreY 14; cellsPerMetreZ 14;
//
// You can also refine vertically more strongly, e.g. 10 10 14, if buoyant
// thermal plumes or ceiling stratification need better resolution.

cellsPerMetreX    14;
cellsPerMetreY    14;
cellsPerMetreZ    14;

// Cell counts for x-segments. The x break-points are:
// 0, 0.5, 1.0, 1.8, 3.1, 3.9, 5.2, 6.0, 6.5, 7.0
nx0 #calc "max(label(1), label($cellsPerMetreX*0.5 + 0.5))";
nx1 #calc "max(label(1), label($cellsPerMetreX*0.5 + 0.5))";
nx2 #calc "max(label(1), label($cellsPerMetreX*0.8 + 0.5))";
nx3 #calc "max(label(1), label($cellsPerMetreX*1.3 + 0.5))";
nx4 #calc "max(label(1), label($cellsPerMetreX*0.8 + 0.5))";
nx5 #calc "max(label(1), label($cellsPerMetreX*1.3 + 0.5))";
nx6 #calc "max(label(1), label($cellsPerMetreX*0.8 + 0.5))";
nx7 #calc "max(label(1), label($cellsPerMetreX*0.5 + 0.5))";
nx8 #calc "max(label(1), label($cellsPerMetreX*0.5 + 0.5))";

// Cell counts for y-segments. The y break-points are:
// 0, 1.0, 2.0, 2.2, 2.8, 3.0, 4.0, 4.4, 4.9, 5.0
ny0 #calc "max(label(1), label($cellsPerMetreY*1.0 + 0.5))";
ny1 #calc "max(label(1), label($cellsPerMetreY*1.0 + 0.5))";
ny2 #calc "max(label(1), label($cellsPerMetreY*0.2 + 0.5))";
ny3 #calc "max(label(1), label($cellsPerMetreY*0.6 + 0.5))";
ny4 #calc "max(label(1), label($cellsPerMetreY*0.2 + 0.5))";
ny5 #calc "max(label(1), label($cellsPerMetreY*1.0 + 0.5))";
ny6 #calc "max(label(1), label($cellsPerMetreY*0.4 + 0.5))";
ny7 #calc "max(label(1), label($cellsPerMetreY*0.5 + 0.5))";
ny8 #calc "max(label(1), label($cellsPerMetreY*0.1 + 0.5))";

// Cell counts for z-segments. The z break-points are:
// 0, 2.2, 3.0
nz0 #calc "max(label(1), label($cellsPerMetreZ*2.2 + 0.5))";
nz1 #calc "max(label(1), label($cellsPerMetreZ*0.8 + 0.5))";

vertices
(
    (0 0 0)    // 0
    (0.5 0 0)    // 1
    (1 0 0)    // 2
    (1.8 0 0)    // 3
    (3.1 0 0)    // 4
    (3.9 0 0)    // 5
    (5.2 0 0)    // 6
    (6 0 0)    // 7
    (6.5 0 0)    // 8
    (7 0 0)    // 9
    (0 1 0)    // 10
    (0.5 1 0)    // 11
    (1 1 0)    // 12
    (1.8 1 0)    // 13
    (3.1 1 0)    // 14
    (3.9 1 0)    // 15
    (5.2 1 0)    // 16
    (6 1 0)    // 17
    (6.5 1 0)    // 18
    (7 1 0)    // 19
    (0 2 0)    // 20
    (0.5 2 0)    // 21
    (1 2 0)    // 22
    (1.8 2 0)    // 23
    (3.1 2 0)    // 24
    (3.9 2 0)    // 25
    (5.2 2 0)    // 26
    (6 2 0)    // 27
    (6.5 2 0)    // 28
    (7 2 0)    // 29
    (0 2.2 0)    // 30
    (0.5 2.2 0)    // 31
    (1 2.2 0)    // 32
    (1.8 2.2 0)    // 33
    (3.1 2.2 0)    // 34
    (3.9 2.2 0)    // 35
    (5.2 2.2 0)    // 36
    (6 2.2 0)    // 37
    (6.5 2.2 0)    // 38
    (7 2.2 0)    // 39
    (0 2.8 0)    // 40
    (0.5 2.8 0)    // 41
    (1 2.8 0)    // 42
    (1.8 2.8 0)    // 43
    (3.1 2.8 0)    // 44
    (3.9 2.8 0)    // 45
    (5.2 2.8 0)    // 46
    (6 2.8 0)    // 47
    (6.5 2.8 0)    // 48
    (7 2.8 0)    // 49
    (0 3 0)    // 50
    (0.5 3 0)    // 51
    (1 3 0)    // 52
    (1.8 3 0)    // 53
    (3.1 3 0)    // 54
    (3.9 3 0)    // 55
    (5.2 3 0)    // 56
    (6 3 0)    // 57
    (6.5 3 0)    // 58
    (7 3 0)    // 59
    (0 4 0)    // 60
    (0.5 4 0)    // 61
    (1 4 0)    // 62
    (1.8 4 0)    // 63
    (3.1 4 0)    // 64
    (3.9 4 0)    // 65
    (5.2 4 0)    // 66
    (6 4 0)    // 67
    (6.5 4 0)    // 68
    (7 4 0)    // 69
    (0 4.4 0)    // 70
    (0.5 4.4 0)    // 71
    (1 4.4 0)    // 72
    (1.8 4.4 0)    // 73
    (3.1 4.4 0)    // 74
    (3.9 4.4 0)    // 75
    (5.2 4.4 0)    // 76
    (6 4.4 0)    // 77
    (6.5 4.4 0)    // 78
    (7 4.4 0)    // 79
    (0 4.9 0)    // 80
    (0.5 4.9 0)    // 81
    (1 4.9 0)    // 82
    (1.8 4.9 0)    // 83
    (3.1 4.9 0)    // 84
    (3.9 4.9 0)    // 85
    (5.2 4.9 0)    // 86
    (6 4.9 0)    // 87
    (6.5 4.9 0)    // 88
    (7 4.9 0)    // 89
    (0 5 0)    // 90
    (0.5 5 0)    // 91
    (1 5 0)    // 92
    (1.8 5 0)    // 93
    (3.1 5 0)    // 94
    (3.9 5 0)    // 95
    (5.2 5 0)    // 96
    (6 5 0)    // 97
    (6.5 5 0)    // 98
    (7 5 0)    // 99
    (0 0 2.2)    // 100
    (0.5 0 2.2)    // 101
    (1 0 2.2)    // 102
    (1.8 0 2.2)    // 103
    (3.1 0 2.2)    // 104
    (3.9 0 2.2)    // 105
    (5.2 0 2.2)    // 106
    (6 0 2.2)    // 107
    (6.5 0 2.2)    // 108
    (7 0 2.2)    // 109
    (0 1 2.2)    // 110
    (0.5 1 2.2)    // 111
    (1 1 2.2)    // 112
    (1.8 1 2.2)    // 113
    (3.1 1 2.2)    // 114
    (3.9 1 2.2)    // 115
    (5.2 1 2.2)    // 116
    (6 1 2.2)    // 117
    (6.5 1 2.2)    // 118
    (7 1 2.2)    // 119
    (0 2 2.2)    // 120
    (0.5 2 2.2)    // 121
    (1 2 2.2)    // 122
    (1.8 2 2.2)    // 123
    (3.1 2 2.2)    // 124
    (3.9 2 2.2)    // 125
    (5.2 2 2.2)    // 126
    (6 2 2.2)    // 127
    (6.5 2 2.2)    // 128
    (7 2 2.2)    // 129
    (0 2.2 2.2)    // 130
    (0.5 2.2 2.2)    // 131
    (1 2.2 2.2)    // 132
    (1.8 2.2 2.2)    // 133
    (3.1 2.2 2.2)    // 134
    (3.9 2.2 2.2)    // 135
    (5.2 2.2 2.2)    // 136
    (6 2.2 2.2)    // 137
    (6.5 2.2 2.2)    // 138
    (7 2.2 2.2)    // 139
    (0 2.8 2.2)    // 140
    (0.5 2.8 2.2)    // 141
    (1 2.8 2.2)    // 142
    (1.8 2.8 2.2)    // 143
    (3.1 2.8 2.2)    // 144
    (3.9 2.8 2.2)    // 145
    (5.2 2.8 2.2)    // 146
    (6 2.8 2.2)    // 147
    (6.5 2.8 2.2)    // 148
    (7 2.8 2.2)    // 149
    (0 3 2.2)    // 150
    (0.5 3 2.2)    // 151
    (1 3 2.2)    // 152
    (1.8 3 2.2)    // 153
    (3.1 3 2.2)    // 154
    (3.9 3 2.2)    // 155
    (5.2 3 2.2)    // 156
    (6 3 2.2)    // 157
    (6.5 3 2.2)    // 158
    (7 3 2.2)    // 159
    (0 4 2.2)    // 160
    (0.5 4 2.2)    // 161
    (1 4 2.2)    // 162
    (1.8 4 2.2)    // 163
    (3.1 4 2.2)    // 164
    (3.9 4 2.2)    // 165
    (5.2 4 2.2)    // 166
    (6 4 2.2)    // 167
    (6.5 4 2.2)    // 168
    (7 4 2.2)    // 169
    (0 4.4 2.2)    // 170
    (0.5 4.4 2.2)    // 171
    (1 4.4 2.2)    // 172
    (1.8 4.4 2.2)    // 173
    (3.1 4.4 2.2)    // 174
    (3.9 4.4 2.2)    // 175
    (5.2 4.4 2.2)    // 176
    (6 4.4 2.2)    // 177
    (6.5 4.4 2.2)    // 178
    (7 4.4 2.2)    // 179
    (0 4.9 2.2)    // 180
    (0.5 4.9 2.2)    // 181
    (1 4.9 2.2)    // 182
    (1.8 4.9 2.2)    // 183
    (3.1 4.9 2.2)    // 184
    (3.9 4.9 2.2)    // 185
    (5.2 4.9 2.2)    // 186
    (6 4.9 2.2)    // 187
    (6.5 4.9 2.2)    // 188
    (7 4.9 2.2)    // 189
    (0 5 2.2)    // 190
    (0.5 5 2.2)    // 191
    (1 5 2.2)    // 192
    (1.8 5 2.2)    // 193
    (3.1 5 2.2)    // 194
    (3.9 5 2.2)    // 195
    (5.2 5 2.2)    // 196
    (6 5 2.2)    // 197
    (6.5 5 2.2)    // 198
    (7 5 2.2)    // 199
    (0 0 3)    // 200
    (0.5 0 3)    // 201
    (1 0 3)    // 202
    (1.8 0 3)    // 203
    (3.1 0 3)    // 204
    (3.9 0 3)    // 205
    (5.2 0 3)    // 206
    (6 0 3)    // 207
    (6.5 0 3)    // 208
    (7 0 3)    // 209
    (0 1 3)    // 210
    (0.5 1 3)    // 211
    (1 1 3)    // 212
    (1.8 1 3)    // 213
    (3.1 1 3)    // 214
    (3.9 1 3)    // 215
    (5.2 1 3)    // 216
    (6 1 3)    // 217
    (6.5 1 3)    // 218
    (7 1 3)    // 219
    (0 2 3)    // 220
    (0.5 2 3)    // 221
    (1 2 3)    // 222
    (1.8 2 3)    // 223
    (3.1 2 3)    // 224
    (3.9 2 3)    // 225
    (5.2 2 3)    // 226
    (6 2 3)    // 227
    (6.5 2 3)    // 228
    (7 2 3)    // 229
    (0 2.2 3)    // 230
    (0.5 2.2 3)    // 231
    (1 2.2 3)    // 232
    (1.8 2.2 3)    // 233
    (3.1 2.2 3)    // 234
    (3.9 2.2 3)    // 235
    (5.2 2.2 3)    // 236
    (6 2.2 3)    // 237
    (6.5 2.2 3)    // 238
    (7 2.2 3)    // 239
    (0 2.8 3)    // 240
    (0.5 2.8 3)    // 241
    (1 2.8 3)    // 242
    (1.8 2.8 3)    // 243
    (3.1 2.8 3)    // 244
    (3.9 2.8 3)    // 245
    (5.2 2.8 3)    // 246
    (6 2.8 3)    // 247
    (6.5 2.8 3)    // 248
    (7 2.8 3)    // 249
    (0 3 3)    // 250
    (0.5 3 3)    // 251
    (1 3 3)    // 252
    (1.8 3 3)    // 253
    (3.1 3 3)    // 254
    (3.9 3 3)    // 255
    (5.2 3 3)    // 256
    (6 3 3)    // 257
    (6.5 3 3)    // 258
    (7 3 3)    // 259
    (0 4 3)    // 260
    (0.5 4 3)    // 261
    (1 4 3)    // 262
    (1.8 4 3)    // 263
    (3.1 4 3)    // 264
    (3.9 4 3)    // 265
    (5.2 4 3)    // 266
    (6 4 3)    // 267
    (6.5 4 3)    // 268
    (7 4 3)    // 269
    (0 4.4 3)    // 270
    (0.5 4.4 3)    // 271
    (1 4.4 3)    // 272
    (1.8 4.4 3)    // 273
    (3.1 4.4 3)    // 274
    (3.9 4.4 3)    // 275
    (5.2 4.4 3)    // 276
    (6 4.4 3)    // 277
    (6.5 4.4 3)    // 278
    (7 4.4 3)    // 279
    (0 4.9 3)    // 280
    (0.5 4.9 3)    // 281
    (1 4.9 3)    // 282
    (1.8 4.9 3)    // 283
    (3.1 4.9 3)    // 284
    (3.9 4.9 3)    // 285
    (5.2 4.9 3)    // 286
    (6 4.9 3)    // 287
    (6.5 4.9 3)    // 288
    (7 4.9 3)    // 289
    (0 5 3)    // 290
    (0.5 5 3)    // 291
    (1 5 3)    // 292
    (1.8 5 3)    // 293
    (3.1 5 3)    // 294
    (3.9 5 3)    // 295
    (5.2 5 3)    // 296
    (6 5 3)    // 297
    (6.5 5 3)    // 298
    (7 5 3)    // 299
);

blocks
(
    hex (0 1 11 10 100 101 111 110) ($nx0 $ny0 $nz0) simpleGrading (1 1 1)    // i=0, j=0, k=0
    hex (1 2 12 11 101 102 112 111) ($nx1 $ny0 $nz0) simpleGrading (1 1 1)    // i=1, j=0, k=0
    hex (2 3 13 12 102 103 113 112) ($nx2 $ny0 $nz0) simpleGrading (1 1 1)    // i=2, j=0, k=0
    hex (3 4 14 13 103 104 114 113) ($nx3 $ny0 $nz0) simpleGrading (1 1 1)    // i=3, j=0, k=0
    hex (4 5 15 14 104 105 115 114) ($nx4 $ny0 $nz0) simpleGrading (1 1 1)    // i=4, j=0, k=0
    hex (5 6 16 15 105 106 116 115) ($nx5 $ny0 $nz0) simpleGrading (1 1 1)    // i=5, j=0, k=0
    hex (6 7 17 16 106 107 117 116) ($nx6 $ny0 $nz0) simpleGrading (1 1 1)    // i=6, j=0, k=0
    hex (7 8 18 17 107 108 118 117) ($nx7 $ny0 $nz0) simpleGrading (1 1 1)    // i=7, j=0, k=0
    hex (8 9 19 18 108 109 119 118) ($nx8 $ny0 $nz0) simpleGrading (1 1 1)    // i=8, j=0, k=0
    hex (10 11 21 20 110 111 121 120) ($nx0 $ny1 $nz0) simpleGrading (1 1 1)    // i=0, j=1, k=0
    hex (11 12 22 21 111 112 122 121) ($nx1 $ny1 $nz0) simpleGrading (1 1 1)    // i=1, j=1, k=0
    hex (12 13 23 22 112 113 123 122) ($nx2 $ny1 $nz0) simpleGrading (1 1 1)    // i=2, j=1, k=0
    hex (13 14 24 23 113 114 124 123) ($nx3 $ny1 $nz0) simpleGrading (1 1 1)    // i=3, j=1, k=0
    hex (14 15 25 24 114 115 125 124) ($nx4 $ny1 $nz0) simpleGrading (1 1 1)    // i=4, j=1, k=0
    hex (15 16 26 25 115 116 126 125) ($nx5 $ny1 $nz0) simpleGrading (1 1 1)    // i=5, j=1, k=0
    hex (16 17 27 26 116 117 127 126) ($nx6 $ny1 $nz0) simpleGrading (1 1 1)    // i=6, j=1, k=0
    hex (17 18 28 27 117 118 128 127) ($nx7 $ny1 $nz0) simpleGrading (1 1 1)    // i=7, j=1, k=0
    hex (18 19 29 28 118 119 129 128) ($nx8 $ny1 $nz0) simpleGrading (1 1 1)    // i=8, j=1, k=0
    hex (20 21 31 30 120 121 131 130) ($nx0 $ny2 $nz0) simpleGrading (1 1 1)    // i=0, j=2, k=0
    hex (21 22 32 31 121 122 132 131) ($nx1 $ny2 $nz0) simpleGrading (1 1 1)    // i=1, j=2, k=0
    hex (22 23 33 32 122 123 133 132) ($nx2 $ny2 $nz0) simpleGrading (1 1 1)    // i=2, j=2, k=0
    hex (23 24 34 33 123 124 134 133) ($nx3 $ny2 $nz0) simpleGrading (1 1 1)    // i=3, j=2, k=0
    hex (24 25 35 34 124 125 135 134) ($nx4 $ny2 $nz0) simpleGrading (1 1 1)    // i=4, j=2, k=0
    hex (25 26 36 35 125 126 136 135) ($nx5 $ny2 $nz0) simpleGrading (1 1 1)    // i=5, j=2, k=0
    hex (26 27 37 36 126 127 137 136) ($nx6 $ny2 $nz0) simpleGrading (1 1 1)    // i=6, j=2, k=0
    hex (27 28 38 37 127 128 138 137) ($nx7 $ny2 $nz0) simpleGrading (1 1 1)    // i=7, j=2, k=0
    hex (28 29 39 38 128 129 139 138) ($nx8 $ny2 $nz0) simpleGrading (1 1 1)    // i=8, j=2, k=0
    hex (30 31 41 40 130 131 141 140) ($nx0 $ny3 $nz0) simpleGrading (1 1 1)    // i=0, j=3, k=0
    hex (31 32 42 41 131 132 142 141) ($nx1 $ny3 $nz0) simpleGrading (1 1 1)    // i=1, j=3, k=0
    hex (32 33 43 42 132 133 143 142) ($nx2 $ny3 $nz0) simpleGrading (1 1 1)    // i=2, j=3, k=0
    hex (33 34 44 43 133 134 144 143) ($nx3 $ny3 $nz0) simpleGrading (1 1 1)    // i=3, j=3, k=0
    hex (34 35 45 44 134 135 145 144) ($nx4 $ny3 $nz0) simpleGrading (1 1 1)    // i=4, j=3, k=0
    hex (35 36 46 45 135 136 146 145) ($nx5 $ny3 $nz0) simpleGrading (1 1 1)    // i=5, j=3, k=0
    hex (36 37 47 46 136 137 147 146) ($nx6 $ny3 $nz0) simpleGrading (1 1 1)    // i=6, j=3, k=0
    hex (37 38 48 47 137 138 148 147) ($nx7 $ny3 $nz0) simpleGrading (1 1 1)    // i=7, j=3, k=0
    hex (38 39 49 48 138 139 149 148) ($nx8 $ny3 $nz0) simpleGrading (1 1 1)    // i=8, j=3, k=0
    hex (40 41 51 50 140 141 151 150) ($nx0 $ny4 $nz0) simpleGrading (1 1 1)    // i=0, j=4, k=0
    hex (41 42 52 51 141 142 152 151) ($nx1 $ny4 $nz0) simpleGrading (1 1 1)    // i=1, j=4, k=0
    hex (42 43 53 52 142 143 153 152) ($nx2 $ny4 $nz0) simpleGrading (1 1 1)    // i=2, j=4, k=0
    hex (43 44 54 53 143 144 154 153) ($nx3 $ny4 $nz0) simpleGrading (1 1 1)    // i=3, j=4, k=0
    hex (44 45 55 54 144 145 155 154) ($nx4 $ny4 $nz0) simpleGrading (1 1 1)    // i=4, j=4, k=0
    hex (45 46 56 55 145 146 156 155) ($nx5 $ny4 $nz0) simpleGrading (1 1 1)    // i=5, j=4, k=0
    hex (46 47 57 56 146 147 157 156) ($nx6 $ny4 $nz0) simpleGrading (1 1 1)    // i=6, j=4, k=0
    hex (47 48 58 57 147 148 158 157) ($nx7 $ny4 $nz0) simpleGrading (1 1 1)    // i=7, j=4, k=0
    hex (48 49 59 58 148 149 159 158) ($nx8 $ny4 $nz0) simpleGrading (1 1 1)    // i=8, j=4, k=0
    hex (50 51 61 60 150 151 161 160) ($nx0 $ny5 $nz0) simpleGrading (1 1 1)    // i=0, j=5, k=0
    hex (51 52 62 61 151 152 162 161) ($nx1 $ny5 $nz0) simpleGrading (1 1 1)    // i=1, j=5, k=0
    hex (52 53 63 62 152 153 163 162) ($nx2 $ny5 $nz0) simpleGrading (1 1 1)    // i=2, j=5, k=0
    hex (53 54 64 63 153 154 164 163) ($nx3 $ny5 $nz0) simpleGrading (1 1 1)    // i=3, j=5, k=0
    hex (54 55 65 64 154 155 165 164) ($nx4 $ny5 $nz0) simpleGrading (1 1 1)    // i=4, j=5, k=0
    hex (55 56 66 65 155 156 166 165) ($nx5 $ny5 $nz0) simpleGrading (1 1 1)    // i=5, j=5, k=0
    hex (56 57 67 66 156 157 167 166) ($nx6 $ny5 $nz0) simpleGrading (1 1 1)    // i=6, j=5, k=0
    hex (57 58 68 67 157 158 168 167) ($nx7 $ny5 $nz0) simpleGrading (1 1 1)    // i=7, j=5, k=0
    hex (58 59 69 68 158 159 169 168) ($nx8 $ny5 $nz0) simpleGrading (1 1 1)    // i=8, j=5, k=0
    hex (60 61 71 70 160 161 171 170) ($nx0 $ny6 $nz0) simpleGrading (1 1 1)    // i=0, j=6, k=0
    hex (61 62 72 71 161 162 172 171) ($nx1 $ny6 $nz0) simpleGrading (1 1 1)    // i=1, j=6, k=0
    hex (62 63 73 72 162 163 173 172) ($nx2 $ny6 $nz0) simpleGrading (1 1 1)    // i=2, j=6, k=0
    hex (63 64 74 73 163 164 174 173) ($nx3 $ny6 $nz0) simpleGrading (1 1 1)    // i=3, j=6, k=0
    hex (64 65 75 74 164 165 175 174) ($nx4 $ny6 $nz0) simpleGrading (1 1 1)    // i=4, j=6, k=0
    hex (65 66 76 75 165 166 176 175) ($nx5 $ny6 $nz0) simpleGrading (1 1 1)    // i=5, j=6, k=0
    hex (66 67 77 76 166 167 177 176) ($nx6 $ny6 $nz0) simpleGrading (1 1 1)    // i=6, j=6, k=0
    hex (67 68 78 77 167 168 178 177) ($nx7 $ny6 $nz0) simpleGrading (1 1 1)    // i=7, j=6, k=0
    hex (68 69 79 78 168 169 179 178) ($nx8 $ny6 $nz0) simpleGrading (1 1 1)    // i=8, j=6, k=0
    hex (70 71 81 80 170 171 181 180) ($nx0 $ny7 $nz0) simpleGrading (1 1 1)    // i=0, j=7, k=0
    hex (71 72 82 81 171 172 182 181) ($nx1 $ny7 $nz0) simpleGrading (1 1 1)    // i=1, j=7, k=0
    hex (72 73 83 82 172 173 183 182) ($nx2 $ny7 $nz0) simpleGrading (1 1 1)    // i=2, j=7, k=0
    hex (73 74 84 83 173 174 184 183) ($nx3 $ny7 $nz0) simpleGrading (1 1 1)    // i=3, j=7, k=0
    hex (74 75 85 84 174 175 185 184) ($nx4 $ny7 $nz0) simpleGrading (1 1 1)    // i=4, j=7, k=0
    hex (75 76 86 85 175 176 186 185) ($nx5 $ny7 $nz0) simpleGrading (1 1 1)    // i=5, j=7, k=0
    hex (76 77 87 86 176 177 187 186) ($nx6 $ny7 $nz0) simpleGrading (1 1 1)    // i=6, j=7, k=0
    hex (77 78 88 87 177 178 188 187) ($nx7 $ny7 $nz0) simpleGrading (1 1 1)    // i=7, j=7, k=0
    hex (78 79 89 88 178 179 189 188) ($nx8 $ny7 $nz0) simpleGrading (1 1 1)    // i=8, j=7, k=0
    hex (80 81 91 90 180 181 191 190) ($nx0 $ny8 $nz0) simpleGrading (1 1 1)    // i=0, j=8, k=0
    hex (81 82 92 91 181 182 192 191) ($nx1 $ny8 $nz0) simpleGrading (1 1 1)    // i=1, j=8, k=0
    hex (82 83 93 92 182 183 193 192) ($nx2 $ny8 $nz0) simpleGrading (1 1 1)    // i=2, j=8, k=0
    hex (83 84 94 93 183 184 194 193) ($nx3 $ny8 $nz0) simpleGrading (1 1 1)    // i=3, j=8, k=0
    hex (84 85 95 94 184 185 195 194) ($nx4 $ny8 $nz0) simpleGrading (1 1 1)    // i=4, j=8, k=0
    hex (85 86 96 95 185 186 196 195) ($nx5 $ny8 $nz0) simpleGrading (1 1 1)    // i=5, j=8, k=0
    hex (86 87 97 96 186 187 197 196) ($nx6 $ny8 $nz0) simpleGrading (1 1 1)    // i=6, j=8, k=0
    hex (87 88 98 97 187 188 198 197) ($nx7 $ny8 $nz0) simpleGrading (1 1 1)    // i=7, j=8, k=0
    hex (88 89 99 98 188 189 199 198) ($nx8 $ny8 $nz0) simpleGrading (1 1 1)    // i=8, j=8, k=0
    hex (100 101 111 110 200 201 211 210) ($nx0 $ny0 $nz1) simpleGrading (1 1 1)    // i=0, j=0, k=1
    hex (101 102 112 111 201 202 212 211) ($nx1 $ny0 $nz1) simpleGrading (1 1 1)    // i=1, j=0, k=1
    hex (102 103 113 112 202 203 213 212) ($nx2 $ny0 $nz1) simpleGrading (1 1 1)    // i=2, j=0, k=1
    hex (103 104 114 113 203 204 214 213) ($nx3 $ny0 $nz1) simpleGrading (1 1 1)    // i=3, j=0, k=1
    hex (104 105 115 114 204 205 215 214) ($nx4 $ny0 $nz1) simpleGrading (1 1 1)    // i=4, j=0, k=1
    hex (105 106 116 115 205 206 216 215) ($nx5 $ny0 $nz1) simpleGrading (1 1 1)    // i=5, j=0, k=1
    hex (106 107 117 116 206 207 217 216) ($nx6 $ny0 $nz1) simpleGrading (1 1 1)    // i=6, j=0, k=1
    hex (107 108 118 117 207 208 218 217) ($nx7 $ny0 $nz1) simpleGrading (1 1 1)    // i=7, j=0, k=1
    hex (108 109 119 118 208 209 219 218) ($nx8 $ny0 $nz1) simpleGrading (1 1 1)    // i=8, j=0, k=1
    hex (110 111 121 120 210 211 221 220) ($nx0 $ny1 $nz1) simpleGrading (1 1 1)    // i=0, j=1, k=1
    hex (111 112 122 121 211 212 222 221) ($nx1 $ny1 $nz1) simpleGrading (1 1 1)    // i=1, j=1, k=1
    hex (112 113 123 122 212 213 223 222) ($nx2 $ny1 $nz1) simpleGrading (1 1 1)    // i=2, j=1, k=1
    hex (113 114 124 123 213 214 224 223) ($nx3 $ny1 $nz1) simpleGrading (1 1 1)    // i=3, j=1, k=1
    hex (114 115 125 124 214 215 225 224) ($nx4 $ny1 $nz1) simpleGrading (1 1 1)    // i=4, j=1, k=1
    hex (115 116 126 125 215 216 226 225) ($nx5 $ny1 $nz1) simpleGrading (1 1 1)    // i=5, j=1, k=1
    hex (116 117 127 126 216 217 227 226) ($nx6 $ny1 $nz1) simpleGrading (1 1 1)    // i=6, j=1, k=1
    hex (117 118 128 127 217 218 228 227) ($nx7 $ny1 $nz1) simpleGrading (1 1 1)    // i=7, j=1, k=1
    hex (118 119 129 128 218 219 229 228) ($nx8 $ny1 $nz1) simpleGrading (1 1 1)    // i=8, j=1, k=1
    hex (120 121 131 130 220 221 231 230) ($nx0 $ny2 $nz1) simpleGrading (1 1 1)    // i=0, j=2, k=1
    hex (121 122 132 131 221 222 232 231) ($nx1 $ny2 $nz1) simpleGrading (1 1 1)    // i=1, j=2, k=1
    hex (122 123 133 132 222 223 233 232) ($nx2 $ny2 $nz1) simpleGrading (1 1 1)    // i=2, j=2, k=1
    hex (123 124 134 133 223 224 234 233) ($nx3 $ny2 $nz1) simpleGrading (1 1 1)    // i=3, j=2, k=1
    hex (124 125 135 134 224 225 235 234) ($nx4 $ny2 $nz1) simpleGrading (1 1 1)    // i=4, j=2, k=1
    hex (125 126 136 135 225 226 236 235) ($nx5 $ny2 $nz1) simpleGrading (1 1 1)    // i=5, j=2, k=1
    hex (126 127 137 136 226 227 237 236) ($nx6 $ny2 $nz1) simpleGrading (1 1 1)    // i=6, j=2, k=1
    hex (127 128 138 137 227 228 238 237) ($nx7 $ny2 $nz1) simpleGrading (1 1 1)    // i=7, j=2, k=1
    hex (128 129 139 138 228 229 239 238) ($nx8 $ny2 $nz1) simpleGrading (1 1 1)    // i=8, j=2, k=1
    hex (130 131 141 140 230 231 241 240) ($nx0 $ny3 $nz1) simpleGrading (1 1 1)    // i=0, j=3, k=1
    hex (131 132 142 141 231 232 242 241) ($nx1 $ny3 $nz1) simpleGrading (1 1 1)    // i=1, j=3, k=1
    hex (132 133 143 142 232 233 243 242) ($nx2 $ny3 $nz1) simpleGrading (1 1 1)    // i=2, j=3, k=1
    hex (133 134 144 143 233 234 244 243) ($nx3 $ny3 $nz1) simpleGrading (1 1 1)    // i=3, j=3, k=1
    hex (134 135 145 144 234 235 245 244) ($nx4 $ny3 $nz1) simpleGrading (1 1 1)    // i=4, j=3, k=1
    hex (135 136 146 145 235 236 246 245) ($nx5 $ny3 $nz1) simpleGrading (1 1 1)    // i=5, j=3, k=1
    hex (136 137 147 146 236 237 247 246) ($nx6 $ny3 $nz1) simpleGrading (1 1 1)    // i=6, j=3, k=1
    hex (137 138 148 147 237 238 248 247) ($nx7 $ny3 $nz1) simpleGrading (1 1 1)    // i=7, j=3, k=1
    hex (138 139 149 148 238 239 249 248) ($nx8 $ny3 $nz1) simpleGrading (1 1 1)    // i=8, j=3, k=1
    hex (140 141 151 150 240 241 251 250) ($nx0 $ny4 $nz1) simpleGrading (1 1 1)    // i=0, j=4, k=1
    hex (141 142 152 151 241 242 252 251) ($nx1 $ny4 $nz1) simpleGrading (1 1 1)    // i=1, j=4, k=1
    hex (142 143 153 152 242 243 253 252) ($nx2 $ny4 $nz1) simpleGrading (1 1 1)    // i=2, j=4, k=1
    hex (143 144 154 153 243 244 254 253) ($nx3 $ny4 $nz1) simpleGrading (1 1 1)    // i=3, j=4, k=1
    hex (144 145 155 154 244 245 255 254) ($nx4 $ny4 $nz1) simpleGrading (1 1 1)    // i=4, j=4, k=1
    hex (145 146 156 155 245 246 256 255) ($nx5 $ny4 $nz1) simpleGrading (1 1 1)    // i=5, j=4, k=1
    hex (146 147 157 156 246 247 257 256) ($nx6 $ny4 $nz1) simpleGrading (1 1 1)    // i=6, j=4, k=1
    hex (147 148 158 157 247 248 258 257) ($nx7 $ny4 $nz1) simpleGrading (1 1 1)    // i=7, j=4, k=1
    hex (148 149 159 158 248 249 259 258) ($nx8 $ny4 $nz1) simpleGrading (1 1 1)    // i=8, j=4, k=1
    hex (150 151 161 160 250 251 261 260) ($nx0 $ny5 $nz1) simpleGrading (1 1 1)    // i=0, j=5, k=1
    hex (151 152 162 161 251 252 262 261) ($nx1 $ny5 $nz1) simpleGrading (1 1 1)    // i=1, j=5, k=1
    hex (152 153 163 162 252 253 263 262) ($nx2 $ny5 $nz1) simpleGrading (1 1 1)    // i=2, j=5, k=1
    hex (153 154 164 163 253 254 264 263) ($nx3 $ny5 $nz1) simpleGrading (1 1 1)    // i=3, j=5, k=1
    hex (154 155 165 164 254 255 265 264) ($nx4 $ny5 $nz1) simpleGrading (1 1 1)    // i=4, j=5, k=1
    hex (155 156 166 165 255 256 266 265) ($nx5 $ny5 $nz1) simpleGrading (1 1 1)    // i=5, j=5, k=1
    hex (156 157 167 166 256 257 267 266) ($nx6 $ny5 $nz1) simpleGrading (1 1 1)    // i=6, j=5, k=1
    hex (157 158 168 167 257 258 268 267) ($nx7 $ny5 $nz1) simpleGrading (1 1 1)    // i=7, j=5, k=1
    hex (158 159 169 168 258 259 269 268) ($nx8 $ny5 $nz1) simpleGrading (1 1 1)    // i=8, j=5, k=1
    hex (160 161 171 170 260 261 271 270) ($nx0 $ny6 $nz1) simpleGrading (1 1 1)    // i=0, j=6, k=1
    hex (161 162 172 171 261 262 272 271) ($nx1 $ny6 $nz1) simpleGrading (1 1 1)    // i=1, j=6, k=1
    hex (162 163 173 172 262 263 273 272) ($nx2 $ny6 $nz1) simpleGrading (1 1 1)    // i=2, j=6, k=1
    hex (163 164 174 173 263 264 274 273) ($nx3 $ny6 $nz1) simpleGrading (1 1 1)    // i=3, j=6, k=1
    hex (164 165 175 174 264 265 275 274) ($nx4 $ny6 $nz1) simpleGrading (1 1 1)    // i=4, j=6, k=1
    hex (165 166 176 175 265 266 276 275) ($nx5 $ny6 $nz1) simpleGrading (1 1 1)    // i=5, j=6, k=1
    hex (166 167 177 176 266 267 277 276) ($nx6 $ny6 $nz1) simpleGrading (1 1 1)    // i=6, j=6, k=1
    hex (167 168 178 177 267 268 278 277) ($nx7 $ny6 $nz1) simpleGrading (1 1 1)    // i=7, j=6, k=1
    hex (168 169 179 178 268 269 279 278) ($nx8 $ny6 $nz1) simpleGrading (1 1 1)    // i=8, j=6, k=1
    hex (170 171 181 180 270 271 281 280) ($nx0 $ny7 $nz1) simpleGrading (1 1 1)    // i=0, j=7, k=1
    hex (171 172 182 181 271 272 282 281) ($nx1 $ny7 $nz1) simpleGrading (1 1 1)    // i=1, j=7, k=1
    hex (172 173 183 182 272 273 283 282) ($nx2 $ny7 $nz1) simpleGrading (1 1 1)    // i=2, j=7, k=1
    hex (173 174 184 183 273 274 284 283) ($nx3 $ny7 $nz1) simpleGrading (1 1 1)    // i=3, j=7, k=1
    hex (174 175 185 184 274 275 285 284) ($nx4 $ny7 $nz1) simpleGrading (1 1 1)    // i=4, j=7, k=1
    hex (175 176 186 185 275 276 286 285) ($nx5 $ny7 $nz1) simpleGrading (1 1 1)    // i=5, j=7, k=1
    hex (176 177 187 186 276 277 287 286) ($nx6 $ny7 $nz1) simpleGrading (1 1 1)    // i=6, j=7, k=1
    hex (177 178 188 187 277 278 288 287) ($nx7 $ny7 $nz1) simpleGrading (1 1 1)    // i=7, j=7, k=1
    hex (178 179 189 188 278 279 289 288) ($nx8 $ny7 $nz1) simpleGrading (1 1 1)    // i=8, j=7, k=1
    hex (180 181 191 190 280 281 291 290) ($nx0 $ny8 $nz1) simpleGrading (1 1 1)    // i=0, j=8, k=1
    hex (181 182 192 191 281 282 292 291) ($nx1 $ny8 $nz1) simpleGrading (1 1 1)    // i=1, j=8, k=1
    hex (182 183 193 192 282 283 293 292) ($nx2 $ny8 $nz1) simpleGrading (1 1 1)    // i=2, j=8, k=1
    hex (183 184 194 193 283 284 294 293) ($nx3 $ny8 $nz1) simpleGrading (1 1 1)    // i=3, j=8, k=1
    hex (184 185 195 194 284 285 295 294) ($nx4 $ny8 $nz1) simpleGrading (1 1 1)    // i=4, j=8, k=1
    hex (185 186 196 195 285 286 296 295) ($nx5 $ny8 $nz1) simpleGrading (1 1 1)    // i=5, j=8, k=1
    hex (186 187 197 196 286 287 297 296) ($nx6 $ny8 $nz1) simpleGrading (1 1 1)    // i=6, j=8, k=1
    hex (187 188 198 197 287 288 298 297) ($nx7 $ny8 $nz1) simpleGrading (1 1 1)    // i=7, j=8, k=1
    hex (188 189 199 198 288 289 299 298) ($nx8 $ny8 $nz1) simpleGrading (1 1 1)    // i=8, j=8, k=1
);

edges
(
);

boundary
(
    supplyTiles
    {
        type patch;
        faces
        (
            (32 42 43 33)
            (34 44 45 35)
            (36 46 47 37)
        );
    }
    returnOutlet
    {
        type patch;
        faces
        (
            (271 272 282 281)
            (272 273 283 282)
            (273 274 284 283)
            (274 275 285 284)
            (275 276 286 285)
            (276 277 287 286)
            (277 278 288 287)
        );
    }
    floor
    {
        type wall;
        faces
        (
            (0 10 11 1)
            (1 11 12 2)
            (2 12 13 3)
            (3 13 14 4)
            (4 14 15 5)
            (5 15 16 6)
            (6 16 17 7)
            (7 17 18 8)
            (8 18 19 9)
            (10 20 21 11)
            (11 21 22 12)
            (12 22 23 13)
            (13 23 24 14)
            (14 24 25 15)
            (15 25 26 16)
            (16 26 27 17)
            (17 27 28 18)
            (18 28 29 19)
            (20 30 31 21)
            (21 31 32 22)
            (22 32 33 23)
            (23 33 34 24)
            (24 34 35 25)
            (25 35 36 26)
            (26 36 37 27)
            (27 37 38 28)
            (28 38 39 29)
            (30 40 41 31)
            (31 41 42 32)
            (33 43 44 34)
            (35 45 46 36)
            (37 47 48 38)
            (38 48 49 39)
            (40 50 51 41)
            (41 51 52 42)
            (42 52 53 43)
            (43 53 54 44)
            (44 54 55 45)
            (45 55 56 46)
            (46 56 57 47)
            (47 57 58 48)
            (48 58 59 49)
            (50 60 61 51)
            (51 61 62 52)
            (52 62 63 53)
            (53 63 64 54)
            (54 64 65 55)
            (55 65 66 56)
            (56 66 67 57)
            (57 67 68 58)
            (58 68 69 59)
            (60 70 71 61)
            (61 71 72 62)
            (62 72 73 63)
            (63 73 74 64)
            (64 74 75 65)
            (65 75 76 66)
            (66 76 77 67)
            (67 77 78 68)
            (68 78 79 69)
            (70 80 81 71)
            (71 81 82 72)
            (72 82 83 73)
            (73 83 84 74)
            (74 84 85 75)
            (75 85 86 76)
            (76 86 87 77)
            (77 87 88 78)
            (78 88 89 79)
            (80 90 91 81)
            (81 91 92 82)
            (82 92 93 83)
            (83 93 94 84)
            (84 94 95 85)
            (85 95 96 86)
            (86 96 97 87)
            (87 97 98 88)
            (88 98 99 89)
        );
    }
    ceiling
    {
        type wall;
        faces
        (
            (200 201 211 210)
            (201 202 212 211)
            (202 203 213 212)
            (203 204 214 213)
            (204 205 215 214)
            (205 206 216 215)
            (206 207 217 216)
            (207 208 218 217)
            (208 209 219 218)
            (210 211 221 220)
            (211 212 222 221)
            (212 213 223 222)
            (213 214 224 223)