/*--------------------------------*- C++ -*----------------------------------*\
| =========                 |                                                 |
| \\      /  F ield         | OpenFOAM: The Open Source CFD Toolbox           |
|  \\    /   O peration     | ThermoFOAM-DC v0.1 baseline case                |
|   \\  /    A nd           | OpenFOAM Foundation v13 / openfoam-dev style    |
|    \\/     M anipulation  |                                                 |
\*---------------------------------------------------------------------------*/
FoamFile
{
    version     2.0;
    format      ascii;
    class       volScalarField;
    location    "0";
    object      p;
}
// * * * * * * * * * * * * * * * * * * * * * * * * * * * * * * * * * * * * * //


dimensions      [1 -1 -2 0 0 0 0];

internalField   uniform 0;

boundaryField
{
    supplyTiles
    {
        type            calculated;
        value           uniform 0;
    }

    returnOutlet
    {
        type            calculated;
        value           uniform 0;
    }

    floor
    {
        type            calculated;
        value           uniform 0;
    }

    ceiling
    {
        type            calculated;
        value           uniform 0;
    }

    walls
    {
        type            calculated;
        value           uniform 0;
    }
}

// ************************************************************************* //
