/*--------------------------------*- C++ -*----------------------------------*\
| =========                 |                                                 |
| \\      /  F ield         | OpenFOAM: The Open Source CFD Toolbox           |
|  \\    /   O peration     | ThermoFOAM-DC v0.1                              |
|   \\  /    A nd           | Optional finite-volume constraints              |
|    \\/     M anipulation  |                                                 |
\*---------------------------------------------------------------------------*/
FoamFile
{
    version     2.0;
    format      ascii;
    class       dictionary;
    location    "system";
    object      fvConstraints;
}
// Empty for v0.1. Add limitTemperature later if the first runs are unstable.

// ************************************************************************* //
